data/casedjbpa.m
function mpc = casedjbpa

%% MATPOWER Case Format : Version 2
mpc.version = '2';

%%-----  Power Flow Data  -----%%
%% system MVA base
mpc.baseMVA = 100.0;

%% bus data
%	bus_i	type	Pd	Qd	Gs	Bs	area	Vm	Va	baseKV	zone	Vmax	Vmin
mpc.bus = [
	1	3	0.0	0.0	0.0	0.0	0	1.0	1.0	345.0	1	1.1	0.9
	2	1	0.0	0.0	0.0	0.0	0	1.0	1.0	345.0	1	1.1	0.9
	3	1	0.0	0.0	0.0	0.0	0	1.0	1.0	345.0	1	1.1	0.9
	4	1	0.0	0.0	0.0	0.0	0	1.0	1.0	345.0	1	1.1	0.9
	5	1	0.0	0.0	0.0	0.0	0	1.0	1.0	345.0	1	1.1	0.9
	6	1	0.0	0.0	0.0	0.0	0	1.0	1.0	345.0	1	1.1	0.9
	7	1	0.0	0.0	0.0	0.0	0	1.0	1.0	345.0	1	1.1	0.9
	8	1	0.0	0.0	0.0	0.0	0	1.0	1.0	345.0	1	1.1	0.9
	9	1	0.0	0.0	0.0	0.0	0	1.0	1.0	345.0	1	1.1	0.9
	10	1	0.0	0.0	0.0	0.0	0	1.0	1.0	345.0	1	1.1	0.9
	11	1	0.0	0.0	0.0	0.0	0	1.0	1.0	345.0	1	1.1	0.9
	12	1	0.0	0.0	0.0	0.0	0	1.0	1.0	345.0	1	1.1	0.9
	13	1	0.6536332	0.0	0.0	0.0	0	1.0	1.0	345.0	1	1.1	0.9
	14	2	0.0	0.0	0.0	0.0	0	1.0	1.0	345.0	1	1.1	0.9
	15	1	0.0	0.0	0.0	0.0	0	1.0	1.0	345.0	1	1.1	0.9
	16	1	0.7019993	0.0	0.0	0.0	0	1.0	1.0	345.0	1	1.1	0.9
	17	1	0.72341857	0.0	0.0	0.0	0	1.0	1.0	345.0	1	1.1	0.9
	18	2	0.0	0.0	0.0	0.0	0	1.0	1.0	345.0	1	1.1	0.9
	19	1	3.0125167	0.0	0.0	0.0	0	1.0	1.0	345.0	1	1.1	0.9
	20	1	0.0	0.0	0.0	0.0	0	1.0	1.0	345.0	1	1.1	0.9
	21	2	0.0	0.0	0.0	0.0	0	1.0	1.0	345.0	1	1.1	0.9
	22	1	0.0	0.0	0.0	0.0	0	1.0	1.0	345.0	1	1.1	0.9
	23	2	0.0	0.0	0.0	0.0	0	1.0	1.0	345.0	1	1.1	0.9
	24	1	0.0	0.0	0.0	0.0	0	1.0	1.0	345.0	1	1.1	0.9
	25	1	0.0	0.0	0.0	0.0	0	1.0	1.0	345.0	1	1.1	0.9
	26	2	0.0	0.0	0.0	0.0	0	1.0	1.0	345.0	1	1.1	0.9
	27	2	0.0	0.0	0.0	0.0	0	1.0	1.0	345.0	1	1.1	0.9
	28	1	0.0	0.0	0.0	0.0	0	1.0	1.0	345.0	1	1.1	0.9
	29	1	0.0	0.0	0.0	0.0	0	1.0	1.0	345.0	1	1.1	0.9
	30	1	0.0	0.0	0.0	0.0	0	1.0	1.0	345.0	1	1.1	0.9
	31	2	0.0	0.0	0.0	0.0	0	1.0	1.0	345.0	1	1.1	0.9
	32	1	0.0	0.0	0.0	0.0	0	1.0	1.0	345.0	1	1.1	0.9
	33	1	0.30125167	0.0	0.0	0.0	0	1.0	1.0	345.0	1	1.1	0.9
	34	1	0.0	0.0	0.0	0.0	0	1.0	1.0	345.0	1	1.1	0.9
	35	1	0.0	0.0	0.0	0.0	0	1.0	1.0	345.0	1	1.1	0.9
	36	1	0.018655493	0.0	0.0	0.0	0	1.0	1.0	345.0	1	1.1	0.9
	37	1	0.0	0.0	0.0	0.0	0	1.0	1.0	345.0	1	1.1	0.9
	38	2	0.0	0.0	0.0	0.0	0	1.0	1.0	345.0	1	1.1	0.9
	39	1	8.0412085	0.0	0.0	0.0	0	1.0	1.0	345.0	1	1.1	0.9
	40	1	0.0	0.0	0.0	0.0	0	1.0	1.0	345.0	1	1.1	0.9
	41	1	0.0	0.0	0.0	0.0	0	1.0	1.0	345.0	1	1.1	0.9
	42	2	0.0	0.0	0.0	0.0	0	1.0	1.0	345.0	1	1.1	0.9
	43	1	0.0	0.0	0.0	0.0	0	1.0	1.0	345.0	1	1.1	0.9
	44	1	0.0	0.0	0.0	0.0	0	1.0	1.0	345.0	1	1.1	0.9
	45	1	0.0	0.0	0.0	0.0	0	1.0	1.0	345.0	1	1.1	0.9
	46	2	0.0	0.0	0.0	0.0	0	1.0	1.0	345.0	1	1.1	0.9
	47	1	41.598295	0.0	0.0	0.0	0	1.0	1.0	345.0	1	1.1	0.9
	48	1	11.556042	0.0	0.0	0.0	0	1.0	1.0	345.0	1	1.1	0.9
	49	1	27.538963	0.0	0.0	0.0	0	1.0	1.0	345.0	1	1.1	0.9
	50	1	1.1752961	0.0	0.0	0.0	0	1.0	1.0	345.0	1	1.1	0.9
	51	2	0.0	0.0	0.0	0.0	0	1.0	1.0	345.0	1	1.1	0.9
	52	1	0.0	0.0	0.0	0.0	0	1.0	1.0	345.0	1	1.1	0.9
	53	1	0.0	0.0	0.0	0.0	0	1.0	1.0	345.0	1	1.1	0.9
	54	1	13.85965	0.0	0.0	0.0	0	1.0	1.0	345.0	1	1.1	0.9
	55	1	3.9162717	0.0	0.0	0.0	0	1.0	1.0	345.0	1	1.1	0.9
	56	1	21.602971	0.0	0.0	0.0	0	1.0	1.0	345.0	1	1.1	0.9
	57	1	0.0	0.0	0.0	0.0	0	1.0	1.0	345.0	1	1.1	0.9
	58	1	0.0	0.0	0.0	0.0	0	1.0	1.0	345.0	1	1.1	0.9
	59	1	0.0	0.0	0.0	0.0	0	1.0	1.0	345.0	1	1.1	0.9
	60	1	0.0	0.0	0.0	0.0	0	1.0	1.0	345.0	1	1.1	0.9
	61	1	0.61973328	0.0	0.0	0.0	0	1.0	1.0	345.0	1	1.1	0.9
	62	1	0.0	0.0	0.0	0.0	0	1.0	1.0	345.0	1	1.1	0.9
	63	2	0.0	0.0	0.0	0.0	0	1.0	1.0	345.0	1	1.1	0.9
	64	1	1.9532992	0.0	0.0	0.0	0	1.0	1.0	345.0	1	1.1	0.9
	65	1	0.0	0.0	0.0	0.0	0	1.0	1.0	345.0	1	1.1	0.9
	66	1	0.0	0.0	0.0	0.0	0	1.0	1.0	345.0	1	1.1	0.9
	67	1	0.0	0.0	0.0	0.0	0	1.0	1.0	345.0	1	1.1	0.9
	68	1	5.0273099	0.0	0.0	0.0	0	1.0	1.0	345.0	1	1.1	0.9
	69	1	0.0	0.0	0.0	0.0	0	1.0	1.0	345.0	1	1.1	0.9
	70	1	0.0	0.0	0.0	0.0	0	1.0	1.0	345.0	1	1.1	0.9
	71	1	1.4295635	0.0	0.0	0.0	0	1.0	1.0	345.0	1	1.1	0.9
	72	2	0.0	0.0	0.0	0.0	0	1.0	1.0	345.0	1	1.1	0.9
	73	1	0.0	0.0	0.0	0.0	0	1.0	1.0	345.0	1	1.1	0.9
	74	1	2.8833101	0.0	0.0	0.0	0	1.0	1.0	345.0	1	1.1	0.9
	75	1	0.0	0.0	0.0	0.0	0	1.0	1.0	345.0	1	1.1	0.9
	76	2	0.0	0.0	0.0	0.0	0	1.0	1.0	345.0	1	1.1	0.9
	77	1	0.0	0.0	0.0	0.0	0	1.0	1.0	345.0	1	1.1	0.9
	78	1	28.49592	0.0	0.0	0.0	0	1.0	1.0	345.0	1	1.1	0.9
	79	1	0.0	0.0	0.0	0.0	0	1.0	1.0	345.0	1	1.1	0.9
	80	1	0.0	0.0	0.0	0.0	0	1.0	1.0	345.0	1	1.1	0.9
	81	1	0.0	0.0	0.0	0.0	0	1.0	1.0	345.0	1	1.1	0.9
	82	1	0.40074763	0.0	0.0	0.0	0	1.0	1.0	345.0	1	1.1	0.9
	83	1	0.47951527	0.0	0.0	0.0	0	1.0	1.0	345.0	1	1.1	0.9
	84	1	0.0	0.0	0.0	0.0	0	1.0	1.0	345.0	1	1.1	0.9
	85	1	2.0204445	0.0	0.0	0.0	0	1.0	1.0	345.0	1	1.1	0.9
	86	1	0.48987943	0.0	0.0	0.0	0	1.0	1.0	345.0	1	1.1	0.9
	87	1	0.0	0.0	0.0	0.0	0	1.0	1.0	345.0	1	1.1	0.9
	88	2	0.0	0.0	0.0	0.0	0	1.0	1.0	345.0	1	1.1	0.9
	89	1	0.60526711	0.0	0.0	0.0	0	1.0	1.0	345.0	1	1.1	0.9
	90	1	0.0	0.0	0.0	0.0	0	1.0	1.0	345.0	1	1.1	0.9
	91	2	0.0	0.0	0.0	0.0	0	1.0	1.0	345.0	1	1.1	0.9
	92	1	0.0	0.0	0.0	0.0	0	1.0	1.0	345.0	1	1.1	0.9
	93	1	0.0	0.0	0.0	0.0	0	1.0	1.0	345.0	1	1.1	0.9
	94	1	0.0	0.0	0.0	0.0	0	1.0	1.0	345.0	1	1.1	0.9
	95	1	0.0	0.0	0.0	0.0	0	1.0	1.0	345.0	1	1.1	0.9
	96	1	1.0882371	0.0	0.0	0.0	0	1.0	1.0	345.0	1	1.1	0.9
	97	1	0.0	0.0	0.0	0.0	0	1.0	1.0	345.0	1	1.1	0.9
	98	1	13.474103	0.0	0.0	0.0	0	1.0	1.0	345.0	1	1.1	0.9
	99	1	0.0	0.0	0.0	0.0	0	1.0	1.0	345.0	1	1.1	0.9
	100	1	3.7670277	0.0	0.0	0.0	0	1.0	1.0	345.0	1	1.1	0.9
	101	1	0.0	0.0	0.0	0.0	0	1.0	1.0	345.0	1	1.1	0.9
	102	1	0.0	0.0	0.0	0.0	0	1.0	1.0	345.0	1	1.1	0.9
	103	1	0.0	0.0	0.0	0.0	0	1.0	1.0	345.0	1	1.1	0.9
	104	1	0.0	0.0	0.0	0.0	0	1.0	1.0	345.0	1	1.1	0.9
	105	1	1.411599	0.0	0.0	0.0	0	1.0	1.0	345.0	1	1.1	0.9
	106	1	0.0	0.0	0.0	0.0	0	1.0	1.0	345.0	1	1.1	0.9
	107	1	0.0	0.0	0.0	0.0	0	1.0	1.0	345.0	1	1.1	0.9
	108	1	0.0	0.0	0.0	0.0	0	1.0	1.0	345.0	1	1.1	0.9
	109	1	0.0	0.0	0.0	0.0	0	1.0	1.0	345.0	1	1.1	0.9
	110	1	0.0	0.0	0.0	0.0	0	1.0	1.0	345.0	1	1.1	0.9
	111	1	4.4372436	0.0	0.0	0.0	0	1.0	1.0	345.0	1	1.1	0.9
	112	1	3.9204173	0.0	0.0	0.0	0	1.0	1.0	345.0	1	1.1	0.9
	113	1	0.0	0.0	0.0	0.0	0	1.0	1.0	345.0	1	1.1	0.9
	114	1	0.0	0.0	0.0	0.0	0	1.0	1.0	345.0	1	1.1	0.9
	115	1	21.732268	0.0	0.0	0.0	0	1.0	1.0	345.0	1	1.1	0.9
	116	1	0.0	0.0	0.0	0.0	0	1.0	1.0	345.0	1	1.1	0.9
	117	1	0.0	0.0	0.0	0.0	0	1.0	1.0	345.0	1	1.1	0.9
	118	1	0.0	0.0	0.0	0.0	0	1.0	1.0	345.0	1	1.1	0.9
	119	1	0.0	0.0	0.0	0.0	0	1.0	1.0	345.0	1	1.1	0.9
	120	1	0.0	0.0	0.0	0.0	0	1.0	1.0	345.0	1	1.1	0.9
	121	1	0.0	0.0	0.0	0.0	0	1.0	1.0	345.0	1	1.1	0.9
	122	1	0.0	0.0	0.0	0.0	0	1.0	1.0	345.0	1	1.1	0.9
	123	1	0.0	0.0	0.0	0.0	0	1.0	1.0	345.0	1	1.1	0.9
	124	1	0.0	0.0	0.0	0.0	0	1.0	1.0	345.0	1	1.1	0.9
	125	1	13.485158	0.0	0.0	0.0	0	1.0	1.0	345.0	1	1.1	0.9
	126	1	0.0	0.0	0.0	0.0	0	1.0	1.0	345.0	1	1.1	0.9
	127	1	6.0091416	0.0	0.0	0.0	0	1.0	1.0	345.0	1	1.1	0.9
	128	1	7.71301	0.0	0.0	0.0	0	1.0	1.0	345.0	1	1.1	0.9
	129	1	0.0	0.0	0.0	0.0	0	1.0	1.0	345.0	1	1.1	0.9
	130	2	0.0	0.0	0.0	0.0	0	1.0	1.0	345.0	1	1.1	0.9
	131	1	0.0	0.0	0.0	0.0	0	1.0	1.0	345.0	1	1.1	0.9
	132	1	15.498569	0.0	0.0	0.0	0	1.0	1.0	345.0	1	1.1	0.9
	133	1	0.0	0.0	0.0	0.0	0	1.0	1.0	345.0	1	1.1	0.9
	134	1	0.0	0.0	0.0	0.0	0	1.0	1.0	345.0	1	1.1	0.9
	135	1	0.0	0.0	0.0	0.0	0	1.0	1.0	345.0	1	1.1	0.9
	136	1	0.0	0.0	0.0	0.0	0	1.0	1.0	345.0	1	1.1	0.9
	137	1	1.5646341	0.0	0.0	0.0	0	1.0	1.0	345.0	1	1.1	0.9
	138	1	2.1073798	0.0	0.0	0.0	0	1.0	1.0	345.0	1	1.1	0.9
	139	1	0.0	0.0	0.0	0.0	0	1.0	1.0	345.0	1	1.1	0.9
	140	1	0.0	0.0	0.0	0.0	0	1.0	1.0	345.0	1	1.1	0.9
	141	1	0.0	0.0	0.0	0.0	0	1.0	1.0	345.0	1	1.1	0.9
	142	1	7.7717403	0.0	0.0	0.0	0	1.0	1.0	345.0	1	1.1	0.9
	143	1	0.0	0.0	0.0	0.0	0	1.0	1.0	345.0	1	1.1	0.9
	144	1	0.0	0.0	0.0	0.0	0	1.0	1.0	345.0	1	1.1	0.9
	145	1	0.98666831	0.0	0.0	0.0	0	1.0	1.0	345.0	1	1.1	0.9
	146	1	0.0	0.0	0.0	0.0	0	1.0	1.0	345.0	1	1.1	0.9
	147	1	0.0	0.0	0.0	0.0	0	1.0	1.0	345.0	1	1.1	0.9
	148	1	0.0	0.0	0.0	0.0	0	1.0	1.0	345.0	1	1.1	0.9
	149	1	0.0	0.0	0.0	0.0	0	1.0	1.0	345.0	1	1.1	0.9
	150	1	0.0	0.0	0.0	0.0	0	1.0	1.0	345.0	1	1.1	0.9
	151	1	1.8959509	0.0	0.0	0.0	0	1.0	1.0	345.0	1	1.1	0.9
	152	1	0.0	0.0	0.0	0.0	0	1.0	1.0	345.0	1	1.1	0.9
	153	1	3.2702389	0.0	0.0	0.0	0	1.0	1.0	345.0	1	1.1	0.9
	154	1	0.0	0.0	0.0	0.0	0	1.0	1.0	345.0	1	1.1	0.9
	155	1	0.0	0.0	0.0	0.0	0	1.0	1.0	345.0	1	1.1	0.9
	156	2	0.0	0.0	0.0	0.0	0	1.0	1.0	345.0	1	1.1	0.9
	157	1	0.0	0.0	0.0	0.0	0	1.0	1.0	345.0	1	1.1	0.9
	158	1	0.0	0.0	0.0	0.0	0	1.0	1.0	345.0	1	1.1	0.9
	159	2	0.0	0.0	0.0	0.0	0	1.0	1.0	345.0	1	1.1	0.9
	160	1	0.45602317	0.0	0.0	0.0	0	1.0	1.0	345.0	1	1.1	0.9
	161	2	0.0	0.0	0.0	0.0	0	1.0	1.0	345.0	1	1.1	0.9
	162	2	0.0	0.0	0.0	0.0	0	1.0	1.0	345.0	1	1.1	0.9
	163	1	0.0	0.0	0.0	0.0	0	1.0	1.0	345.0	1	1.1	0.9
	164	1	25.339687	0.0	0.0	0.0	0	1.0	1.0	345.0	1	1.1	0.9
	165	1	0.0	0.0	0.0	0.0	0	1.0	1.0	345.0	1	1.1	0.9
	166	1	0.0	0.0	0.0	0.0	0	1.0	1.0	345.0	1	1.1	0.9
	167	1	0.0	0.0	0.0	0.0	0	1.0	1.0	345.0	1	1.1	0.9
	168	1	2.3588835	0.0	0.0	0.0	0	1.0	1.0	345.0	1	1.1	0.9
	169	2	0.0	0.0	0.0	0.0	0	1.0	1.0	345.0	1	1.1	0.9
	170	2	0.0	0.0	0.0	0.0	0	1.0	1.0	345.0	1	1.1	0.9
	171	1	0.0	0.0	0.0	0.0	0	1.0	1.0	345.0	1	1.1	0.9
	172	1	0.0	0.0	0.0	0.0	0	1.0	1.0	345.0	1	1.1	0.9
	173	1	0.0	0.0	0.0	0.0	0	1.0	1.0	345.0	1	1.1	0.9
	174	2	0.0	0.0	0.0	0.0	0	1.0	1.0	345.0	1	1.1	0.9
	175	1	0.0	0.0	0.0	0.0	0	1.0	1.0	345.0	1	1.1	0.9
	176	1	0.0	0.0	0.0	0.0	0	1.0	1.0	345.0	1	1.1	0.9
	177	1	0.0	0.0	0.0	0.0	0	1.0	1.0	345.0	1	1.1	0.9
	178	1	9.1854121	0.0	0.0	0.0	0	1.0	1.0	345.0	1	1.1	0.9
	179	2	0.0	0.0	0.0	0.0	0	1.0	1.0	345.0	1	1.1	0.9
	180	1	0.0	0.0	0.0	0.0	0	1.0	1.0	345.0	1	1.1	0.9
	181	1	0.0	0.0	0.0	0.0	0	1.0	1.0	345.0	1	1.1	0.9
	182	1	0.0	0.0	0.0	0.0	0	1.0	1.0	345.0	1	1.1	0.9
	183	1	0.0	0.0	0.0	0.0	0	1.0	1.0	345.0	1	1.1	0.9
	184	1	0.0	0.0	0.0	0.0	0	1.0	1.0	345.0	1	1.1	0.9
	185	1	0.0	0.0	0.0	0.0	0	1.0	1.0	345.0	1	1.1	0.9
	186	2	0.0	0.0	0.0	0.0	0	1.0	1.0	345.0	1	1.1	0.9
	187	1	0.0	0.0	0.0	0.0	0	1.0	1.0	345.0	1	1.1	0.9
	188	1	0.0	0.0	0.0	0.0	0	1.0	1.0	345.0	1	1.1	0.9
	189	1	0.0	0.0	0.0	0.0	0	1.0	1.0	345.0	1	1.1	0.9
	190	2	0.0	0.0	0.0	0.0	0	1.0	1.0	345.0	1	1.1	0.9
	191	1	0.0	0.0	0.0	0.0	0	1.0	1.0	345.0	1	1.1	0.9
	192	2	0.0	0.0	0.0	0.0	0	1.0	1.0	345.0	1	1.1	0.9
	193	1	0.0	0.0	0.0	0.0	0	1.0	1.0	345.0	1	1.1	0.9
	194	1	0.0	0.0	0.0	0.0	0	1.0	1.0	345.0	1	1.1	0.9
	195	2	0.0	0.0	0.0	0.0	0	1.0	1.0	345.0	1	1.1	0.9
	196	1	0.0	0.0	0.0	0.0	0	1.0	1.0	345.0	1	1.1	0.9
	197	1	0.71650913	0.0	0.0	0.0	0	1.0	1.0	345.0	1	1.1	0.9
	198	1	0.0	0.0	0.0	0.0	0	1.0	1.0	345.0	1	1.1	0.9
	199	1	0.0	0.0	0.0	0.0	0	1.0	1.0	345.0	1	1.1	0.9
	200	1	0.8975365	0.0	0.0	0.0	0	1.0	1.0	345.0	1	1.1	0.9
...
];

%% generator data
%	bus	Pg	Qg	Qmax	Qmin	Vg	mBase	status	Pmax	Pmin	Pc1	Pc2	Qc1min	Qc1max	Qc2min	Qc2max	ramp_agc	ramp_10	ramp_30	ramp_q	apf
mpc.gen = [
	14	550.34925	0.0	0.0	0.0	100.0	0.0	1	825.523875	0.0	0.0	0.0	0.0	0.0	0.0	0.0	0.0	0.0	0.0	0.0	0.0
	18	22.682966	0.0	0.0	0.0	100.0	0.0	1	34.024449000000004	0.0	0.0	0.0	0.0	0.0	0.0	0.0	0.0	0.0	0.0	0.0	0.0
	21	91.261134	0.0	0.0	0.0	100.0	0.0	1	136.891701	0.0	0.0	0.0	0.0	0.0	0.0	0.0	0.0	0.0	0.0	0.0	0.0
	23	61.703282	0.0	0.0	0.0	100.0	0.0	1	92.554923	0.0	0.0	0.0	0.0	0.0	0.0	0.0	0.0	0.0	0.0	0.0	0.0
	26	7.409769	0.0	0.0	0.0	100.0	0.0	1	11.1146535	0.0	0.0	0.0	0.0	0.0	0.0	0.0	0.0	0.0	0.0	0.0	0.0
	27	14.132363	0.0	0.0	0.0	100.0	0.0	1	21.1985445	0.0	0.0	0.0	0.0	0.0	0.0	0.0	0.0	0.0	0.0	0.0	0.0
	31	66.254924	0.0	0.0	0.0	100.0	0.0	1	99.382386	0.0	0.0	0.0	0.0	0.0	0.0	0.0	0.0	0.0	0.0	0.0	0.0
	38	8.6497711	0.0	0.0	0.0	100.0	0.0	1	12.97465665	0.0	0.0	0.0	0.0	0.0	0.0	0.0	0.0	0.0	0.0	0.0	0.0
	42	33.207863	0.0	0.0	0.0	100.0	0.0	1	49.811794500000005	0.0	0.0	0.0	0.0	0.0	0.0	0.0	0.0	0.0	0.0	0.0	0.0
	46	1.8146373	0.0	0.0	0.0	100.0	0.0	1	2.72195595	0.0	0.0	0.0	0.0	0.0	0.0	0.0	0.0	0.0	0.0	0.0	0.0
	51	0.33268351	0.0	0.0	0.0	100.0	0.0	1	0.499025265	0.0	0.0	0.0	0.0	0.0	0.0	0.0	0.0	0.0	0.0	0.0	0.0
	63	5.7161075	0.0	0.0	0.0	100.0	0.0	1	8.57416125	0.0	0.0	0.0	0.0	0.0	0.0	0.0	0.0	0.0	0.0	0.0	0.0
	72	74.38917	0.0	0.0	0.0	100.0	0.0	1	111.583755	0.0	0.0	0.0	0.0	0.0	0.0	0.0	0.0	0.0	0.0	0.0	0.0
	76	0.30243955	0.0	0.0	0.0	100.0	0.0	1	0.453659325	0.0	0.0	0.0	0.0	0.0	0.0	0.0	0.0	0.0	0.0	0.0	0.0
	88	3.6444215	0.0	0.0	0.0	100.0	0.0	1	5.46663225	0.0	0.0	0.0	0.0	0.0	0.0	0.0	0.0	0.0	0.0	0.0	0.0
	91	30.243955	0.0	0.0	0.0	100.0	0.0	1	45.3659325	0.0	0.0	0.0	0.0	0.0	0.0	0.0	0.0	0.0	0.0	0.0	0.0
	130	29.034197	0.0	0.0	0.0	100.0	0.0	1	43.551295499999995	0.0	0.0	0.0	0.0	0.0	0.0	0.0	0.0	0.0	0.0	0.0	0.0
	156	2.8731757	0.0	0.0	0.0	100.0	0.0	1	4.3097635499999996	0.0	0.0	0.0	0.0	0.0	0.0	0.0	0.0	0.0	0.0	0.0	0.0
	159	5.7152166	0.0	0.0	0.0	100.0	0.0	1	8.5728249	0.0	0.0	0.0	0.0	0.0	0.0	0.0	0.0	0.0	0.0	0.0	0.0
	161	33.959285	0.0	0.0	0.0	100.0	0.0	1	50.938927500000005	0.0	0.0	0.0	0.0	0.0	0.0	0.0	0.0	0.0	0.0	0.0	0.0
	162	4.5365933	0.0	0.0	0.0	100.0	0.0	1	6.80488995	0.0	0.0	0.0	0.0	0.0	0.0	0.0	0.0	0.0	0.0	0.0	0.0
	169	3.2738872	0.0	0.0	0.0	100.0	0.0	1	4.910830799999999	0.0	0.0	0.0	0.0	0.0	0.0	0.0	0.0	0.0	0.0	0.0	0.0
	170	2.4195164	0.0	0.0	0.0	100.0	0.0	1	3.6292746	0.0	0.0	0.0	0.0	0.0	0.0	0.0	0.0	0.0	0.0	0.0	0.0
	174	19.658571	0.0	0.0	0.0	100.0	0.0	1	29.4878565	0.0	0.0	0.0	0.0	0.0	0.0	0.0	0.0	0.0	0.0	0.0	0.0
	179	1.1735752	0.0	0.0	0.0	100.0	0.0	1	1.7603627999999998	0.0	0.0	0.0	0.0	0.0	0.0	0.0	0.0	0.0	0.0	0.0	0.0
	186	23.720807	0.0	0.0	0.0	100.0	0.0	1	35.5812105	0.0	0.0	0.0	0.0	0.0	0.0	0.0	0.0	0.0	0.0	0.0	0.0
	190	6.048791	0.0	0.0	0.0	100.0	0.0	1	9.073186499999998	0.0	0.0	0.0	0.0	0.0	0.0	0.0	0.0	0.0	0.0	0.0	0.0
	192	33.790802	0.0	0.0	0.0	100.0	0.0	1	50.686203	0.0	0.0	0.0	0.0	0.0	0.0	0.0	0.0	0.0	0.0	0.0	0.0
	195	7.8634283	0.0	0.0	0.0	100.0	0.0	1	11.79514245	0.0	0.0	0.0	0.0	0.0	0.0	0.0	0.0	0.0	0.0	0.0	0.0
	310	0.96780656	0.0	0.0	0.0	100.0	0.0	1	1.45170984	0.0	0.0	0.0	0.0	0.0	0.0	0.0	0.0	0.0	0.0	0.0	0.0
	333	9.9805052	0.0	0.0	0.0	100.0	0.0	1	14.9707578	0.0	0.0	0.0	0.0	0.0	0.0	0.0	0.0	0.0	0.0	0.0	0.0
	334	7.8634283	0.0	0.0	0.0	100.0	0.0	1	11.79514245	0.0	0.0	0.0	0.0	0.0	0.0	0.0	0.0	0.0	0.0	0.0	0.0
	336	4.5365933	0.0	0.0	0.0	100.0	0.0	1	6.80488995	0.0	0.0	0.0	0.0	0.0	0.0	0.0	0.0	0.0	0.0	0.0	0.0
	337	8.770747	0.0	0.0	0.0	100.0	0.0	1	13.1561205	0.0	0.0	0.0	0.0	0.0	0.0	0.0	0.0	0.0	0.0	0.0	0.0
	339	12.883925	0.0	0.0	0.0	100.0	0.0	1	19.3258875	0.0	0.0	0.0	0.0	0.0	0.0	0.0	0.0	0.0	0.0	0.0	0.0
	342	2.6642683	0.0	0.0	0.0	100.0	0.0	1	3.9964024499999997	0.0	0.0	0.0	0.0	0.0	0.0	0.0	0.0	0.0	0.0	0.0	0.0
	343	3.0977471	0.0	0.0	0.0	100.0	0.0	1	4.64662065	0.0	0.0	0.0	0.0	0.0	0.0	0.0	0.0	0.0	0.0	0.0	0.0
	344	5.4439119	0.0	0.0	0.0	100.0	0.0	1	8.16586785	0.0	0.0	0.0	0.0	0.0	0.0	0.0	0.0	0.0	0.0	0.0	0.0
	346	9.6780656	0.0	0.0	0.0	100.0	0.0	1	14.5170984	0.0	0.0	0.0	0.0	0.0	0.0	0.0	0.0	0.0	0.0	0.0	0.0
	347	1.1492703	0.0	0.0	0.0	100.0	0.0	1	1.72390545	0.0	0.0	0.0	0.0	0.0	0.0	0.0	0.0	0.0	0.0	0.0	0.0
	348	1.5737604	0.0	0.0	0.0	100.0	0.0	1	2.3606406	0.0	0.0	0.0	0.0	0.0	0.0	0.0	0.0	0.0	0.0	0.0	0.0
	352	0.84683074	0.0	0.0	0.0	100.0	0.0	1	1.27024611	0.0	0.0	0.0	0.0	0.0	0.0	0.0	0.0	0.0	0.0	0.0	0.0
	356	3.1756153	0.0	0.0	0.0	100.0	0.0	1	4.76342295	0.0	0.0	0.0	0.0	0.0	0.0	0.0	0.0	0.0	0.0	0.0	0.0
	359	14.819538	0.0	0.0	0.0	100.0	0.0	1	22.229307	0.0	0.0	0.0	0.0	0.0	0.0	0.0	0.0	0.0	0.0	0.0	0.0
	366	3.3268351	0.0	0.0	0.0	100.0	0.0	1	4.9902526499999995	0.0	0.0	0.0	0.0	0.0	0.0	0.0	0.0	0.0	0.0	0.0	0.0
	388	15.575637	0.0	0.0	0.0	100.0	0.0	1	23.3634555	0.0	0.0	0.0	0.0	0.0	0.0	0.0	0.0	0.0	0.0	0.0	0.0
	391	5.4439119	0.0	0.0	0.0	100.0	0.0	1	8.16586785	0.0	0.0	0.0	0.0	0.0	0.0	0.0	0.0	0.0	0.0	0.0	0.0
	396	0.22682966	0.0	0.0	0.0	100.0	0.0	1	0.34024449	0.0	0.0	0.0	0.0	0.0	0.0	0.0	0.0	0.0	0.0	0.0	0.0
	406	5.2019603	0.0	0.0	0.0	100.0	0.0	1	7.8029404499999995	0.0	0.0	0.0	0.0	0.0	0.0	0.0	0.0	0.0	0.0	0.0	0.0
	419	1.8146373	0.0	0.0	0.0	100.0	0.0	1	2.72195595	0.0	0.0	0.0	0.0	0.0	0.0	0.0	0.0	0.0	0.0	0.0	0.0
	480	0.96780656	0.0	0.0	0.0	100.0	0.0	1	1.45170984	0.0	0.0	0.0	0.0	0.0	0.0	0.0	0.0	0.0	0.0	0.0	0.0
	487	187.24033	0.0	0.0	0.0	100.0	0.0	1	280.860495	0.0	0.0	0.0	0.0	0.0	0.0	0.0	0.0	0.0	0.0	0.0	0.0
	491	29.850784	0.0	0.0	0.0	100.0	0.0	1	44.776176	0.0	0.0	0.0	0.0	0.0	0.0	0.0	0.0	0.0	0.0	0.0	0.0
	495	6.048791	0.0	0.0	0.0	100.0	0.0	1	9.073186499999998	0.0	0.0	0.0	0.0	0.0	0.0	0.0	0.0	0.0	0.0	0.0	0.0
	496	0.63512306	0.0	0.0	0.0	100.0	0.0	1	0.9526845899999999	0.0	0.0	0.0	0.0	0.0	0.0	0.0	0.0	0.0	0.0	0.0	0.0
	513	0.36292746	0.0	0.0	0.0	100.0	0.0	1	0.54439119	0.0	0.0	0.0	0.0	0.0	0.0	0.0	0.0	0.0	0.0	0.0	0.0
	539	0.18146373	0.0	0.0	0.0	100.0	0.0	1	0.272195595	0.0	0.0	0.0	0.0	0.0	0.0	0.0	0.0	0.0	0.0	0.0	0.0
	543	0.96780656	0.0	0.0	0.0	100.0	0.0	1	1.45170984	0.0	0.0	0.0	0.0	0.0	0.0	0.0	0.0	0.0	0.0	0.0	0.0
	544	8.1658679	0.0	0.0	0.0	100.0	0.0	1	12.24880185	0.0	0.0	0.0	0.0	0.0	0.0	0.0	0.0	0.0	0.0	0.0	0.0
	588	0.48390328	0.0	0.0	0.0	100.0	0.0	1	0.72585492	0.0	0.0	0.0	0.0	0.0	0.0	0.0	0.0	0.0	0.0	0.0	0.0
	611	3.9619581	0.0	0.0	0.0	100.0	0.0	1	5.94293715	0.0	0.0	0.0	0.0	0.0	0.0	0.0	0.0	0.0	0.0	0.0	0.0
	614	184.69983	0.0	0.0	0.0	100.0	0.0	1	277.049745	0.0	0.0	0.0	0.0	0.0	0.0	0.0	0.0	0.0	0.0	0.0	0.0
	638	3.3268351	0.0	0.0	0.0	100.0	0.0	1	4.9902526499999995	0.0	0.0	0.0	0.0	0.0	0.0	0.0	0.0	0.0	0.0	0.0	0.0
	644	123.12314	0.0	0.0	0.0	100.0	0.0	1	184.68471	0.0	0.0	0.0	0.0	0.0	0.0	0.0	0.0	0.0	0.0	0.0	0.0
	707	17.925991	0.0	0.0	0.0	100.0	0.0	1	26.8889865	0.0	0.0	0.0	0.0	0.0	0.0	0.0	0.0	0.0	0.0	0.0	0.0
	748	0.36292746	0.0	0.0	0.0	100.0	0.0	1	0.54439119	0.0	0.0	0.0	0.0	0.0	0.0	0.0	0.0	0.0	0.0	0.0	0.0
	754	32.625493	0.0	0.0	0.0	100.0	0.0	1	48.938239499999995	0.0	0.0	0.0	0.0	0.0	0.0	0.0	0.0	0.0	0.0	0.0	0.0
	755	39.804831	0.0	0.0	0.0	100.0	0.0	1	59.7072465	0.0	0.0	0.0	0.0	0.0	0.0	0.0	0.0	0.0	0.0	0.0	0.0
	756	68.935414	0.0	0.0	0.0	100.0	0.0	1	103.403121	0.0	0.0	0.0	0.0	0.0	0.0	0.0	0.0	0.0	0.0	0.0	0.0
	757	21.05665	0.0	0.0	0.0	100.0	0.0	1	31.584975	0.0	0.0	0.0	0.0	0.0	0.0	0.0	0.0	0.0	0.0	0.0	0.0
	760	58.794249	0.0	0.0	0.0	100.0	0.0	1	88.1913735	0.0	0.0	0.0	0.0	0.0	0.0	0.0	0.0	0.0	0.0	0.0	0.0
	775	48.995207	0.0	0.0	0.0	100.0	0.0	1	73.4928105	0.0	0.0	0.0	0.0	0.0	0.0	0.0	0.0	0.0	0.0	0.0	0.0
	776	5.3312792	0.0	0.0	0.0	100.0	0.0	1	7.9969187999999995	0.0	0.0	0.0	0.0	0.0	0.0	0.0	0.0	0.0	0.0	0.0	0.0
	778	21.170769	0.0	0.0	0.0	100.0	0.0	1	31.7561535	0.0	0.0	0.0	0.0	0.0	0.0	0.0	0.0	0.0	0.0	0.0	0.0
	782	88.532961	0.0	0.0	0.0	100.0	0.0	1	132.7994415	0.0	0.0	0.0	0.0	0.0	0.0	0.0	0.0	0.0	0.0	0.0	0.0
	793	96.478217	0.0	0.0	0.0	100.0	0.0	1	144.71732550000002	0.0	0.0	0.0	0.0	0.0	0.0	0.0	0.0	0.0	0.0	0.0	0.0
	857	75.005009	0.0	0.0	0.0	100.0	0.0	1	112.5075135	0.0	0.0	0.0	0.0	0.0	0.0	0.0	0.0	0.0	0.0	0.0	0.0
	879	15.787345	0.0	0.0	0.0	100.0	0.0	1	23.6810175	0.0	0.0	0.0	0.0	0.0	0.0	0.0	0.0	0.0	0.0	0.0	0.0
	882	1.6331736	0.0	0.0	0.0	100.0	0.0	1	2.4497603999999997	0.0	0.0	0.0	0.0	0.0	0.0	0.0	0.0	0.0	0.0	0.0	0.0
	910	1.9356131	0.0	0.0	0.0	100.0	0.0	1	2.90341965	0.0	0.0	0.0	0.0	0.0	0.0	0.0	0.0	0.0	0.0	0.0	0.0
	918	6.2907427	0.0	0.0	0.0	100.0	0.0	1	9.43611405	0.0	0.0	0.0	0.0	0.0	0.0	0.0	0.0	0.0	0.0	0.0	0.0
	919	10.736604	0.0	0.0	0.0	100.0	0.0	1	16.104906	0.0	0.0	0.0	0.0	0.0	0.0	0.0	0.0	0.0	0.0	0.0	0.0
	920	3.2451903	0.0	0.0	0.0	100.0	0.0	1	4.8677854499999995	0.0	0.0	0.0	0.0	0.0	0.0	0.0	0.0	0.0	0.0	0.0	0.0
	929	15.424417	0.0	0.0	0.0	100.0	0.0	1	23.1366255	0.0	0.0	0.0	0.0	0.0	0.0	0.0	0.0	0.0	0.0	0.0	0.0
	930	3.3367043	0.0	0.0	0.0	100.0	0.0	1	5.00505645	0.0	0.0	0.0	0.0	0.0	0.0	0.0	0.0	0.0	0.0	0.0	0.0
	931	5.6858636	0.0	0.0	0.0	100.0	0.0	1	8.5287954	0.0	0.0	0.0	0.0	0.0	0.0	0.0	0.0	0.0	0.0	0.0	0.0
	938	8.5825332	0.0	0.0	0.0	100.0	0.0	1	12.8737998	0.0	0.0	0.0	0.0	0.0	0.0	0.0	0.0	0.0	0.0	0.0	0.0
	983	330.53618	0.0	0.0	0.0	100.0	0.0	1	495.80427	0.0	0.0	0.0	0.0	0.0	0.0	0.0	0.0	0.0	0.0	0.0	0.0
	997	1.8670551	0.0	0.0	0.0	100.0	0.0	1	2.80058265	0.0	0.0	0.0	0.0	0.0	0.0	0.0	0.0	0.0	0.0	0.0	0.0
	1005	0.90731865	0.0	0.0	0.0	100.0	0.0	1	1.360977975	0.0	0.0	0.0	0.0	0.0	0.0	0.0	0.0	0.0	0.0	0.0	0.0
	1006	3.0243955	0.0	0.0	0.0	100.0	0.0	1	4.536593249999999	0.0	0.0	0.0	0.0	0.0	0.0	0.0	0.0	0.0	0.0	0.0	0.0
	1007	2.3590285	0.0	0.0	0.0	100.0	0.0	1	3.53854275	0.0	0.0	0.0	0.0	0.0	0.0	0.0	0.0	0.0	0.0	0.0	0.0
	1012	175.80811	0.0	0.0	0.0	100.0	0.0	1	263.712165	0.0	0.0	0.0	0.0	0.0	0.0	0.0	0.0	0.0	0.0	0.0	0.0
	1026	208.50183	0.0	0.0	0.0	100.0	0.0	1	312.752745	0.0	0.0	0.0	0.0	0.0	0.0	0.0	0.0	0.0	0.0	0.0	0.0
	1027	0.36292746	0.0	0.0	0.0	100.0	0.0	1	0.54439119	0.0	0.0	0.0	0.0	0.0	0.0	0.0	0.0	0.0	0.0	0.0	0.0
	1028	167.76851	0.0	0.0	0.0	100.0	0.0	1	251.652765	0.0	0.0	0.0	0.0	0.0	0.0	0.0	0.0	0.0	0.0	0.0	0.0
	1037	37.92592	0.0	0.0	0.0	100.0	0.0	1	56.88888	0.0	0.0	0.0	0.0	0.0	0.0	0.0	0.0	0.0	0.0	0.0	0.0
	1038	653.26943	0.0	0.0	0.0	100.0	0.0	1	979.9041450000001	0.0	0.0	0.0	0.0	0.0	0.0	0.0	0.0	0.0	0.0	0.0	0.0
	1040	138.84725	0.0	0.0	0.0	100.0	0.0	1	208.270875	0.0	0.0	0.0	0.0	0.0	0.0	0.0	0.0	0.0	0.0	0.0	0.0
	1046	1.9658571	0.0	0.0	0.0	100.0	0.0	1	2.94878565	0.0	0.0	0.0	0.0	0.0	0.0	0.0	0.0	0.0	0.0	0.0	0.0
	1063	0.48390328	0.0	0.0	0.0	100.0	0.0	1	0.72585492	0.0	0.0	0.0	0.0	0.0	0.0	0.0	0.0	0.0	0.0	0.0	0.0
	1078	362.92746	0.0	0.0	0.0	100.0	0.0	1	544.39119	0.0	0.0	0.0	0.0	0.0	0.0	0.0	0.0	0.0	0.0	0.0	0.0
	1094	181.76617	0.0	0.0	0.0	100.0	0.0	1	272.649255	0.0	0.0	0.0	0.0	0.0	0.0	0.0	0.0	0.0	0.0	0.0	0.0
	1095	2.7339903	0.0	0.0	0.0	100.0	0.0	1	4.10098545	0.0	0.0	0.0	0.0	0.0	0.0	0.0	0.0	0.0	0.0	0.0	0.0
	1097	194.16619	0.0	0.0	0.0	100.0	0.0	1	291.249285	0.0	0.0	0.0	0.0	0.0	0.0	0.0	0.0	0.0	0.0	0.0	0.0
	1110	19.265399	0.0	0.0	0.0	100.0	0.0	1	28.898098499999996	0.0	0.0	0.0	0.0	0.0	0.0	0.0	0.0	0.0	0.0	0.0	0.0
	1112	296.39076	0.0	0.0	0.0	100.0	0.0	1	444.58614	0.0	0.0	0.0	0.0	0.0	0.0	0.0	0.0	0.0	0.0	0.0	0.0
	1137	3.6292746	0.0	0.0	0.0	100.0	0.0	1	5.4439119	0.0	0.0	0.0	0.0	0.0	0.0	0.0	0.0	0.0	0.0	0.0	0.0
	1139	1.9053692	0.0	0.0	0.0	100.0	0.0	1	2.8580538	0.0	0.0	0.0	0.0	0.0	0.0	0.0	0.0	0.0	0.0	0.0	0.0
	1142	3.9014702	0.0	0.0	0.0	100.0	0.0	1	5.8522053	0.0	0.0	0.0	0.0	0.0	0.0	0.0	0.0	0.0	0.0	0.0	0.0
	1186	8.7685267	0.0	0.0	0.0	100.0	0.0	1	13.15279005	0.0	0.0	0.0	0.0	0.0	0.0	0.0	0.0	0.0	0.0	0.0	0.0
	1189	21.170769	0.0	0.0	0.0	100.0	0.0	1	31.7561535	0.0	0.0	0.0	0.0	0.0	0.0	0.0	0.0	0.0	0.0	0.0	0.0
	1200	2059.3109	0.0	0.0	0.0	100.0	0.0	1	3088.9663499999997	0.0	0.0	0.0	0.0	0.0	0.0	0.0	0.0	0.0	0.0	0.0	0.0
	1253	4.0240235	0.0	0.0	0.0	100.0	0.0	1	6.03603525	0.0	0.0	0.0	0.0	0.0	0.0	0.0	0.0	0.0	0.0	0.0	0.0
	1283	10.613417	0.0	0.0	0.0	100.0	0.0	1	15.920125500000001	0.0	0.0	0.0	0.0	0.0	0.0	0.0	0.0	0.0	0.0	0.0	0.0
	1292	138.03341	0.0	0.0	0.0	100.0	0.0	1	207.050115	0.0	0.0	0.0	0.0	0.0	0.0	0.0	0.0	0.0	0.0	0.0	0.0
	1294	7.4400129	0.0	0.0	0.0	100.0	0.0	1	11.16001935	0.0	0.0	0.0	0.0	0.0	0.0	0.0	0.0	0.0	0.0	0.0	0.0
	1300	7.9844041	0.0	0.0	0.0	100.0	0.0	1	11.97660615	0.0	0.0	0.0	0.0	0.0	0.0	0.0	0.0	0.0	0.0	0.0	0.0
	1314	3.0243955	0.0	0.0	0.0	100.0	0.0	1	4.536593249999999	0.0	0.0	0.0	0.0	0.0	0.0	0.0	0.0	0.0	0.0	0.0	0.0
	1329	5.35318	0.0	0.0	0.0	100.0	0.0	1	8.02977	0.0	0.0	0.0	0.0	0.0	0.0	0.0	0.0	0.0	0.0	0.0	0.0
	1391	53.070575	0.0	0.0	0.0	100.0	0.0	1	79.6058625	0.0	0.0	0.0	0.0	0.0	0.0	0.0	0.0	0.0	0.0	0.0	0.0
	1400	49.660574	0.0	0.0	0.0	100.0	0.0	1	74.490861	0.0	0.0	0.0	0.0	0.0	0.0	0.0	0.0	0.0	0.0	0.0	0.0
	1409	45.365933	0.0	0.0	0.0	100.0	0.0	1	68.0488995	0.0	0.0	0.0	0.0	0.0	0.0	0.0	0.0	0.0	0.0	0.0	0.0
	1412	42.462513	0.0	0.0	0.0	100.0	0.0	1	63.6937695	0.0	0.0	0.0	0.0	0.0	0.0	0.0	0.0	0.0	0.0	0.0	0.0
	1420	0.66536701	0.0	0.0	0.0	100.0	0.0	1	0.998050515	0.0	0.0	0.0	0.0	0.0	0.0	0.0	0.0	0.0	0.0	0.0	0.0
	1444	8.1961118	0.0	0.0	0.0	100.0	0.0	1	12.294167700000001	0.0	0.0	0.0	0.0	0.0	0.0	0.0	0.0	0.0	0.0	0.0	0.0
	1450	2.6608618	0.0	0.0	0.0	100.0	0.0	1	3.9912927000000002	0.0	0.0	0.0	0.0	0.0	0.0	0.0	0.0	0.0	0.0	0.0	0.0
	1480	7.5851839	0.0	0.0	0.0	100.0	0.0	1	11.377775849999999	0.0	0.0	0.0	0.0	0.0	0.0	0.0	0.0	0.0	0.0	0.0	0.0
	1483	1.3428316	0.0	0.0	0.0	100.0	0.0	1	2.0142474	0.0	0.0	0.0	0.0	0.0	0.0	0.0	0.0	0.0	0.0	0.0	0.0
	1489	29.017722	0.0	0.0	0.0	100.0	0.0	1	43.526583	0.0	0.0	0.0	0.0	0.0	0.0	0.0	0.0	0.0	0.0	0.0	0.0
	1492	118.40508	0.0	0.0	0.0	100.0	0.0	1	177.60762	0.0	0.0	0.0	0.0	0.0	0.0	0.0	0.0	0.0	0.0	0.0	0.0
	1496	177.04811	0.0	0.0	0.0	100.0	0.0	1	265.57216500000004	0.0	0.0	0.0	0.0	0.0	0.0	0.0	0.0	0.0	0.0	0.0	0.0
	1497	57.334919	0.0	0.0	0.0	100.0	0.0	1	86.00237849999999	0.0	0.0	0.0	0.0	0.0	0.0	0.0	0.0	0.0	0.0	0.0	0.0
	1511	1.996101	0.0	0.0	0.0	100.0	0.0	1	2.9941515	0.0	0.0	0.0	0.0	0.0	0.0	0.0	0.0	0.0	0.0	0.0	0.0
	1514	313.93225	0.0	0.0	0.0	100.0	0.0	1	470.898375	0.0	0.0	0.0	0.0	0.0	0.0	0.0	0.0	0.0	0.0	0.0	0.0
	1515	44.83248	0.0	0.0	0.0	100.0	0.0	1	67.24871999999999	0.0	0.0	0.0	0.0	0.0	0.0	0.0	0.0	0.0	0.0	0.0	0.0
	1546	244.97604	0.0	0.0	0.0	100.0	0.0	1	367.46406	0.0	0.0	0.0	0.0	0.0	0.0	0.0	0.0	0.0	0.0	0.0	0.0
	1549	244.97604	0.0	0.0	0.0	100.0	0.0	1	367.46406	0.0	0.0	0.0	0.0	0.0	0.0	0.0	0.0	0.0	0.0	0.0	0.0
	1550	243.40649	0.0	0.0	0.0	100.0	0.0	1	365.109735	0.0	0.0	0.0	0.0	0.0	0.0	0.0	0.0	0.0	0.0	0.0	0.0
	1568	2.8429318	0.0	0.0	0.0	100.0	0.0	1	4.2643977	0.0	0.0	0.0	0.0	0.0	0.0	0.0	0.0	0.0	0.0	0.0	0.0
	1572	285.0963	0.0	0.0	0.0	100.0	0.0	1	427.64445	0.0	0.0	0.0	0.0	0.0	0.0	0.0	0.0	0.0	0.0	0.0	0.0
	1577	0.48390328	0.0	0.0	0.0	100.0	0.0	1	0.72585492	0.0	0.0	0.0	0.0	0.0	0.0	0.0	0.0	0.0	0.0	0.0	0.0
	1644	12.702461	0.0	0.0	0.0	100.0	0.0	1	19.0536915	0.0	0.0	0.0	0.0	0.0	0.0	0.0	0.0	0.0	0.0	0.0	0.0
	1667	9.6780656	0.0	0.0	0.0	100.0	0.0	1	14.5170984	0.0	0.0	0.0	0.0	0.0	0.0	0.0	0.0	0.0	0.0	0.0	0.0
	1702	8.2777705	0.0	0.0	0.0	100.0	0.0	1	12.41665575	0.0	0.0	0.0	0.0	0.0	0.0	0.0	0.0	0.0	0.0	0.0	0.0
	1708	14.517098	0.0	0.0	0.0	100.0	0.0	1	21.775647	0.0	0.0	0.0	0.0	0.0	0.0	0.0	0.0	0.0	0.0	0.0	0.0
	1712	27.824439	0.0	0.0	0.0	100.0	0.0	1	41.736658500000004	0.0	0.0	0.0	0.0	0.0	0.0	0.0	0.0	0.0	0.0	0.0	0.0
	1713	186.95469	0.0	0.0	0.0	100.0	0.0	1	280.432035	0.0	0.0	0.0	0.0	0.0	0.0	0.0	0.0	0.0	0.0	0.0	0.0
	1772	27.052517	0.0	0.0	0.0	100.0	0.0	1	40.578775500000006	0.0	0.0	0.0	0.0	0.0	0.0	0.0	0.0	0.0	0.0	0.0	0.0
	1776	742.85202	0.0	0.0	0.0	100.0	0.0	1	1114.27803	0.0	0.0	0.0	0.0	0.0	0.0	0.0	0.0	0.0	0.0	0.0	0.0
	1780	3.5848037	0.0	0.0	0.0	100.0	0.0	1	5.37720555	0.0	0.0	0.0	0.0	0.0	0.0	0.0	0.0	0.0	0.0	0.0	0.0
	1781	231.03087	0.0	0.0	0.0	100.0	0.0	1	346.54630499999996	0.0	0.0	0.0	0.0	0.0	0.0	0.0	0.0	0.0	0.0	0.0	0.0
	1886	6.048791	0.0	0.0	0.0	100.0	0.0	1	9.073186499999998	0.0	0.0	0.0	0.0	0.0	0.0	0.0	0.0	0.0	0.0	0.0	0.0
	1888	4.8390328	0.0	0.0	0.0	100.0	0.0	1	7.2585492	0.0	0.0	0.0	0.0	0.0	0.0	0.0	0.0	0.0	0.0	0.0	0.0
	1890	1.1190263	0.0	0.0	0.0	100.0	0.0	1	1.6785394500000002	0.0	0.0	0.0	0.0	0.0	0.0	0.0	0.0	0.0	0.0	0.0	0.0
	1891	10.85758	0.0	0.0	0.0	100.0	0.0	1	16.28637	0.0	0.0	0.0	0.0	0.0	0.0	0.0	0.0	0.0	0.0	0.0	0.0
	1907	0.30243955	0.0	0.0	0.0	100.0	0.0	1	0.453659325	0.0	0.0	0.0	0.0	0.0	0.0	0.0	0.0	0.0	0.0	0.0	0.0
	1955	59.883031	0.0	0.0	0.0	100.0	0.0	1	89.8245465	0.0	0.0	0.0	0.0	0.0	0.0	0.0	0.0	0.0	0.0	0.0	0.0
	1957	26.316956	0.0	0.0	0.0	100.0	0.0	1	39.475434	0.0	0.0	0.0	0.0	0.0	0.0	0.0	0.0	0.0	0.0	0.0	0.0
	1960	3.6292746	0.0	0.0	0.0	100.0	0.0	1	5.4439119	0.0	0.0	0.0	0.0	0.0	0.0	0.0	0.0	0.0	0.0	0.0	0.0
	1995	7.7122085	0.0	0.0	0.0	100.0	0.0	1	11.56831275	0.0	0.0	0.0	0.0	0.0	0.0	0.0	0.0	0.0	0.0	0.0	0.0
	1999	15.666369	0.0	0.0	0.0	100.0	0.0	1	23.499553499999998	0.0	0.0	0.0	0.0	0.0	0.0	0.0	0.0	0.0	0.0	0.0	0.0
	2026	10.832419	0.0	0.0	0.0	100.0	0.0	1	16.2486285	0.0	0.0	0.0	0.0	0.0	0.0	0.0	0.0	0.0	0.0	0.0	0.0
	2027	22.944234	0.0	0.0	0.0	100.0	0.0	1	34.416351000000006	0.0	0.0	0.0	0.0	0.0	0.0	0.0	0.0	0.0	0.0	0.0	0.0
	2048	0.42341537	0.0	0.0	0.0	100.0	0.0	1	0.635123055	0.0	0.0	0.0	0.0	0.0	0.0	0.0	0.0	0.0	0.0	0.0	0.0
	2129	196.58571	0.0	0.0	0.0	100.0	0.0	1	294.878565	0.0	0.0	0.0	0.0	0.0	0.0	0.0	0.0	0.0	0.0	0.0	0.0
	2131	9.9805052	0.0	0.0	0.0	100.0	0.0	1	14.9707578	0.0	0.0	0.0	0.0	0.0	0.0	0.0	0.0	0.0	0.0	0.0	0.0
	2137	532.24494	0.0	0.0	0.0	100.0	0.0	1	798.3674100000001	0.0	0.0	0.0	0.0	0.0	0.0	0.0	0.0	0.0	0.0	0.0	0.0
	2140	0.30243955	0.0	0.0	0.0	100.0	0.0	1	0.453659325	0.0	0.0	0.0	0.0	0.0	0.0	0.0	0.0	0.0	0.0	0.0	0.0
	2169	21.170769	0.0	0.0	0.0	100.0	0.0	1	31.7561535	0.0	0.0	0.0	0.0	0.0	0.0	0.0	0.0	0.0	0.0	0.0	0.0
	2170	393.05044	0.0	0.0	0.0	100.0	0.0	1	589.57566	0.0	0.0	0.0	0.0	0.0	0.0	0.0	0.0	0.0	0.0	0.0	0.0
	2177	28.36883	0.0	0.0	0.0	100.0	0.0	1	42.553245	0.0	0.0	0.0	0.0	0.0	0.0	0.0	0.0	0.0	0.0	0.0	0.0
	2181	13.791244	0.0	0.0	0.0	100.0	0.0	1	20.686866000000002	0.0	0.0	0.0	0.0	0.0	0.0	0.0	0.0	0.0	0.0	0.0	0.0
	2194	1.6331736	0.0	0.0	0.0	100.0	0.0	1	2.4497603999999997	0.0	0.0	0.0	0.0	0.0	0.0	0.0	0.0	0.0	0.0	0.0	0.0
	2196	189.87155	0.0	0.0	0.0	100.0	0.0	1	284.807325	0.0	0.0	0.0	0.0	0.0	0.0	0.0	0.0	0.0	0.0	0.0	0.0
	2207	4.6575691	0.0	0.0	0.0	100.0	0.0	1	6.98635365	0.0	0.0	0.0	0.0	0.0	0.0	0.0	0.0	0.0	0.0	0.0	0.0
];

%% branch data
%	fbus	tbus	r	x	b	rateA	rateB	rateC	ratio	angle	status	angmin	angmax
mpc.branch = [
	1	2208	0.0	5.860000142984004	0.0	10.0	10.0	10.0	0.0	0.0	1	-360.0	360.0
	2	10	0.0	0.5200000062400001	0.0	10.0	10.0	10.0	0.0	0.0	1	-360.0	360.0
	3	7	0.0	0.22999999931	0.0	10.0	10.0	10.0	0.0	0.0	1	-360.0	360.0
	4	5	0.0	0.3300000033	0.0	10.0	10.0	10.0	0.0	0.0	1	-360.0	360.0
	5	7	0.0	0.27000000027	0.0	10.0	10.0	10.0	0.0	0.0	1	-360.0	360.0
	5	8	0.0	1.0	0.0	10.0	10.0	10.0	0.0	0.0	1	-360.0	360.0
	6	7	0.0	0.32	0.0	10.0	10.0	10.0	0.0	0.0	1	-360.0	360.0
	6	8	0.0	0.4800000076800001	0.0	10.0	10.0	10.0	0.0	0.0	1	-360.0	360.0
	8	9	0.0	0.9499999810000004	0.0	10.0	10.0	10.0	0.0	0.0	1	-360.0	360.0
	9	10	0.0	0.76999999923	0.0	10.0	10.0	10.0	0.0	0.0	1	-360.0	360.0
	9	11	0.0	2.029999989444	0.0	10.0	10.0	10.0	0.0	0.0	1	-360.0	360.0
	10	12	0.0	1.6799999865600002	0.0	10.0	10.0	10.0	0.0	0.0	1	-360.0	360.0
	11	2208	0.0	2.129999991267	0.0	10.0	10.0	10.0	0.0	0.0	1	-360.0	360.0
	12	2208	0.0	2.6100000167040003	0.0	10.0	10.0	10.0	0.0	0.0	1	-360.0	360.0
	13	15	0.0	7.61000027091601	0.0	10.0	10.0	10.0	0.0	0.0	1	-360.0	360.0
	14	15	0.0	1.220000001708	0.0	2183.6	2183.6	2183.6	0.0	0.0	1	-360.0	360.0
	14	2200	0.0	1.1900000063070002	0.0	2183.6	2183.6	2183.6	0.0	0.0	1	-360.0	360.0
	15	2200	0.0	0.20999999832000002	0.0	2180.44	2180.44	2180.44	0.0	0.0	1	-360.0	360.0
	16	17	0.0	33.7899995455245	0.0	10.0	10.0	10.0	0.0	0.0	1	-360.0	360.0
	17	32	0.0	10.870000017392	0.0	10.0	10.0	10.0	0.0	0.0	1	-360.0	360.0
	18	31	0.0	11.2499999859375	0.0	632.16474	632.16474	632.16474	0.0	0.0	1	-360.0	360.0
	19	20	0.0	10.940000029319199	0.0	14.7326	14.7326	14.7326	0.0	0.0	1	-360.0	360.0
	20	21	0.0	18.5399998550172	0.0	14.7326	14.7326	14.7326	0.0	0.0	1	-360.0	360.0
	21	22	0.0	10.7499999785	0.0	441.72523	441.72523	441.72523	0.0	0.0	1	-360.0	360.0
	22	25	0.0	17.429999856899702	0.0	444.29381	444.29381	444.29381	0.0	0.0	1	-360.0	360.0
	23	24	0.0	4.590000078948002	0.0	600.03022	600.03022	600.03022	0.0	0.0	1	-360.0	360.0
	24	25	0.0	16.449999879915	0.0	700.66492	700.66492	700.66492	0.0	0.0	1	-360.0	360.0
	25	26	0.0	2.589999973841	0.0	1191.8162	1191.8162	1191.8162	0.0	0.0	1	-360.0	360.0
	26	31	0.0	16.2699999991865	0.0	1216.3162	1216.3162	1216.3162	0.0	0.0	1	-360.0	360.0
	27	30	0.0	0.04	0.0	124.72789	124.72789	124.72789	0.0	0.0	1	-360.0	360.0
	28	29	0.0	7.479999976064	0.0	10.0	10.0	10.0	0.0	0.0	1	-360.0	360.0
	29	30	0.0	23.369999772376204	0.0	1030.545	1030.545	1030.545	0.0	0.0	1	-360.0	360.0
	29	32	0.0	6.25	0.0	1030.545	1030.545	1030.545	0.0	0.0	1	-360.0	360.0
	30	31	0.0	55.1600001301776	0.0	974.47	974.47	974.47	0.0	0.0	1	-360.0	360.0
	31	2200	0.0	37.69999991329	0.0	1488.6561	1488.6561	1488.6561	0.0	0.0	1	-360.0	360.0
	32	33	0.0	47.929999194776016	0.0	1023.573	1023.573	1023.573	0.0	0.0	1	-360.0	360.0
	33	2203	0.0	50.0099994993999	0.0	1022.101	1022.101	1022.101	0.0	0.0	1	-360.0	360.0
	34	2195	0.0	25.869999681540303	0.0	10.0	10.0	10.0	0.0	0.0	1	-360.0	360.0
	35	2193	0.0	26.749999692375003	0.0	2039.25	2039.25	2039.25	0.0	0.0	1	-360.0	360.0
	35	2200	0.0	103.28000033297472	0.0	2039.25	2039.25	2039.25	0.0	0.0	1	-360.0	360.0
	36	2193	0.0	87.06000201456844	0.0	2024.0	2024.0	2024.0	0.0	0.0	1	-360.0	360.0
	36	2194	0.0	15.994923339291496	0.0	5639.05	5639.05	5639.05	0.0	0.0	1	-360.0	360.0
	36	2195	0.0	17.985500233595676	0.0	7053.5	7053.5	7053.5	0.0	0.0	1	-360.0	360.0
	37	558	0.0	17.4699998611135	0.0	10.0	10.0	10.0	0.0	0.0	1	-360.0	360.0
	38	39	0.0	24.270000257990105	0.0	34.3	34.3	34.3	0.0	0.0	1	-360.0	360.0
	39	41	0.0	16.49999989275	0.0	2710.24	2710.24	2710.24	0.0	0.0	1	-360.0	360.0
	39	73	0.0	42.68999931269101	0.0	2705.24	2705.24	2705.24	0.0	0.0	1	-360.0	360.0
	40	41	0.0	96.48000422968337	0.0	2254.78	2254.78	2254.78	0.0	0.0	1	-360.0	360.0
	40	2200	0.0	1.509999990034	0.0	1535.98	1535.98	1535.98	0.0	0.0	1	-360.0	360.0
	41	73	0.0	59.11999881760003	0.0	2710.05	2710.05	2710.05	0.0	0.0	1	-360.0	360.0
	41	2203	0.0	50.44999885478503	0.0	2793.8	2793.8	2793.8	0.0	0.0	1	-360.0	360.0
	42	72	0.0	12.6800000502128	0.0	131.7	131.7	131.7	0.0	0.0	1	-360.0	360.0
	43	44	0.0	12.0799999932352	0.0	952.927	952.927	952.927	0.0	0.0	1	-360.0	360.0
	43	73	0.0	18.649999982282498	0.0	1677.88	1677.88	1677.88	0.0	0.0	1	-360.0	360.0
	43	558	0.0	5.709999951465001	0.0	2267.29	2267.29	2267.29	0.0	0.0	1	-360.0	360.0
	44	71	0.0	8.670475375286353	0.0	871.357	871.357	871.357	0.0	0.0	1	-360.0	360.0
	44	73	0.0	13.0800000664464	0.0	1887.19	1887.19	1887.19	0.0	0.0	1	-360.0	360.0
	44	2194	0.0	26.710000258819903	0.0	2190.67	2190.67	2190.67	0.0	0.0	1	-360.0	360.0
	45	46	0.0	10.849999954972501	0.0	674.428	674.428	674.428	0.0	0.0	1	-360.0	360.0
	45	70	0.0	15.500000007749998	0.0	674.428	674.428	674.428	0.0	0.0	1	-360.0	360.0
	46	71	0.0	13.1099999395629	0.0	681.628	681.628	681.628	0.0	0.0	1	-360.0	360.0
	47	53	0.0	3.27999998688	0.0	1647.13	1647.13	1647.13	0.0	0.0	1	-360.0	360.0
	47	70	0.0	19.5799999933428	0.0	1850.56	1850.56	1850.56	0.0	0.0	1	-360.0	360.0
	48	52	0.0	3.1099999841390003	0.0	56.5143	56.5143	56.5143	0.0	0.0	1	-360.0	360.0
	49	52	0.0	1.7300000062279999	0.0	134.678	134.678	134.678	0.0	0.0	1	-360.0	360.0
	50	51	0.0	75.87000130496402	0.0	10.0	10.0	10.0	0.0	0.0	1	-360.0	360.0
	51	52	0.0	2.679999988208	0.0	1074.326	1074.326	1074.326	0.0	0.0	1	-360.0	360.0
	51	53	0.0	4.789999936293	0.0	1078.754	1078.754	1078.754	0.0	0.0	1	-360.0	360.0
	52	558	0.0	9.560000042064	0.0	883.134	883.134	883.134	0.0	0.0	1	-360.0	360.0
	53	69	0.0	9.049999800900004	0.0	942.901	942.901	942.901	0.0	0.0	1	-360.0	360.0
	54	68	0.0	39.609999940585006	0.0	67.78	67.78	67.78	0.0	0.0	1	-360.0	360.0
	55	56	0.0	9.329999662254012	0.0	19.1523	19.1523	19.1523	0.0	0.0	1	-360.0	360.0
	56	68	0.0	10.6700000315832	0.0	1343.34	1343.34	1343.34	0.0	0.0	1	-360.0	360.0
	56	69	0.0	24.260000245026003	0.0	1218.54	1218.54	1218.54	0.0	0.0	1	-360.0	360.0
	57	67	0.0	2.420000002904	0.0	1152.667	1152.667	1152.667	0.0	0.0	1	-360.0	360.0
	57	72	0.0	3.0899999567400007	0.0	1152.667	1152.667	1152.667	0.0	0.0	1	-360.0	360.0
	58	59	0.0	3.820000068760001	0.0	10.0	10.0	10.0	0.0	0.0	1	-360.0	360.0
	59	60	0.0	1.270000007747	0.0	633.376	633.376	633.376	0.0	0.0	1	-360.0	360.0
	59	73	0.0	11.5699999342824	0.0	633.376	633.376	633.376	0.0	0.0	1	-360.0	360.0
	60	61	0.0	13.3299999446805	0.0	633.376	633.376	633.376	0.0	0.0	1	-360.0	360.0
	61	67	0.0	14.3200000481152	0.0	636.4	636.4	636.4	0.0	0.0	1	-360.0	360.0
	62	64	0.0	6.679999946560001	0.0	10.0	10.0	10.0	0.0	0.0	1	-360.0	360.0
	63	64	0.0	14.710000071343499	0.0	22.6	22.6	22.6	0.0	0.0	1	-360.0	360.0
	63	65	0.0	9.159999637264013	0.0	22.6	22.6	22.6	0.0	0.0	1	-360.0	360.0
	64	65	0.0	24.0399998672992	0.0	13.1275	13.1275	13.1275	0.0	0.0	1	-360.0	360.0
	65	66	0.0	8.1999999672	0.0	590.38	590.38	590.38	0.0	0.0	1	-360.0	360.0
	65	67	0.0	5.360000120064003	0.0	577.254	577.254	577.254	0.0	0.0	1	-360.0	360.0
	66	68	0.0	43.0600003642876	0.0	590.38	590.38	590.38	0.0	0.0	1	-360.0	360.0
	68	73	0.0	10.7899999920154	0.0	965.415	965.415	965.415	0.0	0.0	1	-360.0	360.0
	69	558	0.0	0.7300000073	0.0	2161.45	2161.45	2161.45	0.0	0.0	1	-360.0	360.0
	70	72	0.0	39.869999878396506	0.0	997.792	997.792	997.792	0.0	0.0	1	-360.0	360.0
	70	73	0.0	2.85999999714	0.0	1448.32	1448.32	1448.32	0.0	0.0	1	-360.0	360.0
	71	2193	0.0	14.767347309948264	0.0	4841.44	4841.44	4841.44	0.0	0.0	1	-360.0	360.0
	71	2194	0.0	12.749992123692365	0.0	4746.94	4746.94	4746.94	0.0	0.0	1	-360.0	360.0
	72	613	0.0	161.58999905275942	0.0	814.604	814.604	814.604	0.0	0.0	1	-360.0	360.0
	72	2193	0.0	26.550000301342504	0.0	786.789	786.789	786.789	0.0	0.0	1	-360.0	360.0
	74	75	0.0	0.9599999692800011	0.0	14.1007	14.1007	14.1007	0.0	0.0	1	-360.0	360.0
	75	557	0.0	29.10000014259	0.0	1437.97	1437.97	1437.97	0.0	0.0	1	-360.0	360.0
	75	613	0.0	13.1900000647629	0.0	1452.07	1452.07	1452.07	0.0	0.0	1	-360.0	360.0
	76	556	0.0	8.980000371772014	0.0	914.23	914.23	914.23	0.0	0.0	1	-360.0	360.0
	76	557	0.0	12.400000044639999	0.0	913.03	913.03	913.03	0.0	0.0	1	-360.0	360.0
	77	78	0.0	2.7600000044160002	0.0	10.0	10.0	10.0	0.0	0.0	1	-360.0	360.0
	78	80	0.0	11.5899999950163	0.0	139.358	139.358	139.358	0.0	0.0	1	-360.0	360.0
	79	80	0.0	7.259999833020004	0.0	10.0	10.0	10.0	0.0	0.0	1	-360.0	360.0
	80	554	0.0	5.080000095504002	0.0	139.358	139.358	139.358	0.0	0.0	1	-360.0	360.0
	81	554	0.0	6.709999845670003	0.0	10.0	10.0	10.0	0.0	0.0	1	-360.0	360.0
	82	83	0.0	6.8199998131320045	0.0	10.0	10.0	10.0	0.0	0.0	1	-360.0	360.0
	83	554	0.0	15.619999891597201	0.0	10.0	10.0	10.0	0.0	0.0	1	-360.0	360.0
	84	554	0.0	6.25	0.0	10.0	10.0	10.0	0.0	0.0	1	-360.0	360.0
	85	135	0.0	10.870000017392	0.0	10.0	10.0	10.0	0.0	0.0	1	-360.0	360.0
	86	87	0.0	16.2900000544086	0.0	10.0	10.0	10.0	0.0	0.0	1	-360.0	360.0
	87	91	0.0	0.42999999914000003	0.0	10.0	10.0	10.0	0.0	0.0	1	-360.0	360.0
	88	89	0.0	1.050000002625	0.0	14.4601	14.4601	14.4601	0.0	0.0	1	-360.0	360.0
	89	90	0.0	2.55000001785	0.0	11.62407	11.62407	11.62407	0.0	0.0	1	-360.0	360.0
	90	91	0.0	1.53999999846	0.0	11.62407	11.62407	11.62407	0.0	0.0	1	-360.0	360.0
	91	135	0.0	37.1400001218192	0.0	131.498	131.498	131.498	0.0	0.0	1	-360.0	360.0
	92	93	0.0	43.42000066779961	0.0	893.646	893.646	893.646	0.0	0.0	1	-360.0	360.0
	92	2203	0.0	109.9199996746368	0.0	893.646	893.646	893.646	0.0	0.0	1	-360.0	360.0
	93	135	0.0	1.2899999974199998	0.0	893.646	893.646	893.646	0.0	0.0	1	-360.0	360.0
	94	97	0.0	5.589999892672002	0.0	10.0	10.0	10.0	0.0	0.0	1	-360.0	360.0
	95	96	0.0	0.3399999966	0.0	10.0	10.0	10.0	0.0	0.0	1	-360.0	360.0
	96	97	0.0	8.449999662000014	0.0	804.067	804.067	804.067	0.0	0.0	1	-360.0	360.0
	96	134	0.0	10.8399999423312	0.0	809.389	809.389	809.389	0.0	0.0	1	-360.0	360.0
	97	556	0.0	7.690000100739001	0.0	804.067	804.067	804.067	0.0	0.0	1	-360.0	360.0
	98	99	0.0	16.2800001126576	0.0	65.8945	65.8945	65.8945	0.0	0.0	1	-360.0	360.0
	99	134	0.0	27.999999776000003	0.0	2731.38	2731.38	2731.38	0.0	0.0	1	-360.0	360.0
	99	555	0.0	11.7700000283657	0.0	2665.48	2665.48	2665.48	0.0	0.0	1	-360.0	360.0
	100	101	0.0	10.4100000375801	0.0	1817.02	1817.02	1817.02	0.0	0.0	1	-360.0	360.0
	100	135	0.0	8.629999639266016	0.0	2419.21	2419.21	2419.21	0.0	0.0	1	-360.0	360.0
	100	554	0.0	59.2200003470292	0.0	933.963	933.963	933.963	0.0	0.0	1	-360.0	360.0
	101	134	0.0	26.6900001323824	0.0	687.931	687.931	687.931	0.0	0.0	1	-360.0	360.0
	101	556	0.0	16.5600001179072	0.0	1624.22	1624.22	1624.22	0.0	0.0	1	-360.0	360.0
	102	103	0.0	9.070000266658008	0.0	213.5	213.5	213.5	0.0	0.0	1	-360.0	360.0
	102	104	0.0	2.1900000219000004	0.0	213.5	213.5	213.5	0.0	0.0	1	-360.0	360.0
	103	133	0.0	12.34999998765	0.0	213.5	213.5	213.5	0.0	0.0	1	-360.0	360.0
	104	105	0.0	5.00999995992	0.0	213.5	213.5	213.5	0.0	0.0	1	-360.0	360.0
	105	106	0.0	1.319999995776	0.0	206.596	206.596	206.596	0.0	0.0	1	-360.0	360.0
	106	107	0.0	4.069999928775001	0.0	206.596	206.596	206.596	0.0	0.0	1	-360.0	360.0
	107	557	0.0	14.47000007235	0.0	206.596	206.596	206.596	0.0	0.0	1	-360.0	360.0
	108	133	0.0	2.449999971825	0.0	1116.21	1116.21	1116.21	0.0	0.0	1	-360.0	360.0
	108	557	0.0	6.700000060300001	0.0	1116.21	1116.21	1116.21	0.0	0.0	1	-360.0	360.0
	109	110	0.0	0.07000000140000003	0.0	10.0	10.0	10.0	0.0	0.0	1	-360.0	360.0
	110	132	0.0	1.8199999981800001	0.0	1513.65	1513.65	1513.65	0.0	0.0	1	-360.0	360.0
	110	134	0.0	0.12000000048000001	0.0	1513.65	1513.65	1513.65	0.0	0.0	1	-360.0	360.0
	111	112	0.0	12.1199999743056	0.0	1005.58	1005.58	1005.58	0.0	0.0	1	-360.0	360.0
	111	116	0.0	19.4900000999837	0.0	1027.281	1027.281	1027.281	0.0	0.0	1	-360.0	360.0
	112	131	0.0	8.880000206016005	0.0	986.408	986.408	986.408	0.0	0.0	1	-360.0	360.0
	113	114	0.0	18.890000166609802	0.0	977.959	977.959	977.959	0.0	0.0	1	-360.0	360.0
	113	116	0.0	1.5699999880680002	0.0	977.959	977.959	977.959	0.0	0.0	1	-360.0	360.0
	114	115	0.0	22.049999962515	0.0	977.959	977.959	977.959	0.0	0.0	1	-360.0	360.0
	115	131	0.0	3.3599999731200003	0.0	792.682	792.682	792.682	0.0	0.0	1	-360.0	360.0
	115	133	0.0	6.669999887944002	0.0	1287.66	1287.66	1287.66	0.0	0.0	1	-360.0	360.0
	116	135	0.0	2.060000013596	0.0	2005.23	2005.23	2005.23	0.0	0.0	1	-360.0	360.0
	117	118	0.0	6.520000133008002	0.0	1068.412	1068.412	1068.412	0.0	0.0	1	-360.0	360.0
	117	131	0.0	4.370000037145	0.0	554.122	554.122	554.122	0.0	0.0	1	-360.0	360.0
	117	557	0.0	12.7399999408864	0.0	1091.218	1091.218	1091.218	0.0	0.0	1	-360.0	360.0
	118	132	0.0	14.4800001007808	0.0	1012.843	1012.843	1012.843	0.0	0.0	1	-360.0	360.0
	118	2204	0.0	22.4200000031388	0.0	1565.7	1565.7	1565.7	0.0	0.0	1	-360.0	360.0
	119	120	0.0	6.129999888434002	0.0	10.0	10.0	10.0	0.0	0.0	1	-360.0	360.0
	120	121	0.0	1.550000000775	0.0	10.0	10.0	10.0	0.0	0.0	1	-360.0	360.0
	121	122	0.0	5.769999843633004	0.0	1239.69	1239.69	1239.69	0.0	0.0	1	-360.0	360.0
	121	129	0.0	18.2400001342464	0.0	1239.69	1239.69	1239.69	0.0	0.0	1	-360.0	360.0
	122	123	0.0	2.4399999736480003	0.0	1239.69	1239.69	1239.69	0.0	0.0	1	-360.0	360.0
	123	132	0.0	1.7999999856000002	0.0	909.45	909.45	909.45	0.0	0.0	1	-360.0	360.0
	123	554	0.0	22.670000063476	0.0	1042.503	1042.503	1042.503	0.0	0.0	1	-360.0	360.0
	124	125	0.0	5.679999936384	0.0	10.0	10.0	10.0	0.0	0.0	1	-360.0	360.0
	125	126	0.0	11.910000036206402	0.0	360.993	360.993	360.993	0.0	0.0	1	-360.0	360.0
	125	128	0.0	5.9199999621120005	0.0	295.045	295.045	295.045	0.0	0.0	1	-360.0	360.0
	126	127	0.0	4.650000074400001	0.0	732.945	732.945	732.945	0.0	0.0	1	-360.0	360.0
	126	2204	0.0	9.399999887200002	0.0	929.505	929.505	929.505	0.0	0.0	1	-360.0	360.0
	127	128	0.0	7.0599999745840005	0.0	439.194	439.194	439.194	0.0	0.0	1	-360.0	360.0
	127	130	0.0	30.540000345712805	0.0	1155.219	1155.219	1155.219	0.0	0.0	1	-360.0	360.0
	127	2204	0.0	14.130000070084801	0.0	878.173	878.173	878.173	0.0	0.0	1	-360.0	360.0
	128	129	0.0	10.0800000209664	0.0	672.786	672.786	672.786	0.0	0.0	1	-360.0	360.0
	129	2204	0.0	14.6399999847744	0.0	968.77	968.77	968.77	0.0	0.0	1	-360.0	360.0
	130	131	0.0	6.2400000099840005	0.0	713.995	713.995	713.995	0.0	0.0	1	-360.0	360.0
	130	133	0.0	2.409999996144	0.0	1663.75	1663.75	1663.75	0.0	0.0	1	-360.0	360.0
	133	134	0.0	0.18999999981	0.0	2498.24	2498.24	2498.24	0.0	0.0	1	-360.0	360.0
	135	2192	0.0	3.739999988032	0.0	3383.07	3383.07	3383.07	0.0	0.0	1	-360.0	360.0
	136	552	0.0	1.2300000001229998	0.0	10.0	10.0	10.0	0.0	0.0	1	-360.0	360.0
	137	138	0.0	10.5200000244064	0.0	10.0	10.0	10.0	0.0	0.0	1	-360.0	360.0
	138	141	0.0	0.25	0.0	1961.14	1961.14	1961.14	0.0	0.0	1	-360.0	360.0
	138	153	0.0	15.500000007749998	0.0	1943.19	1943.19	1943.19	0.0	0.0	1	-360.0	360.0
	139	140	0.0	14.9899999461859	0.0	1762.2	1762.2	1762.2	0.0	0.0	1	-360.0	360.0
	139	141	0.0	1.610000006279	0.0	1762.2	1762.2	1762.2	0.0	0.0	1	-360.0	360.0
	140	153	0.0	13.150000065092499	0.0	1398.31	1398.31	1398.31	0.0	0.0	1	-360.0	360.0
	140	555	0.0	8.499999915000002	0.0	1036.609	1036.609	1036.609	0.0	0.0	1	-360.0	360.0
	141	557	0.0	23.779999807382	0.0	3041.2	3041.2	3041.2	0.0	0.0	1	-360.0	360.0
	142	143	0.0	2.379999984292	0.0	38.0073	38.0073	38.0073	0.0	0.0	1	-360.0	360.0
	143	144	0.0	3.3100000397200002	0.0	1637.43	1637.43	1637.43	0.0	0.0	1	-360.0	360.0
	143	152	0.0	3.769999991329	0.0	1675.45	1675.45	1675.45	0.0	0.0	1	-360.0	360.0
	144	553	0.0	11.2499999859375	0.0	1637.43	1637.43	1637.43	0.0	0.0	1	-360.0	360.0
	145	147	0.0	12.450000021787499	0.0	10.0	10.0	10.0	0.0	0.0	1	-360.0	360.0
	146	147	0.0	1.32999999867	0.0	10.0	10.0	10.0	0.0	0.0	1	-360.0	360.0
	147	148	0.0	12.410000042566299	0.0	10.0	10.0	10.0	0.0	0.0	1	-360.0	360.0
	148	149	0.0	9.690000413763016	0.0	866.272	866.272	866.272	0.0	0.0	1	-360.0	360.0
	148	150	0.0	4.800000076800001	0.0	871.098	871.098	871.098	0.0	0.0	1	-360.0	360.0
	149	152	0.0	0.8599999982800001	0.0	866.272	866.272	866.272	0.0	0.0	1	-360.0	360.0
	150	151	0.0	9.399999887200002	0.0	871.098	871.098	871.098	0.0	0.0	1	-360.0	360.0
	151	555	0.0	5.870000044025001	0.0	880.37	880.37	880.37	0.0	0.0	1	-360.0	360.0
...
];

%%-----  OPF Data  -----%%
%% area data
%	area	refbus
mpc.areas = [
	1	5
];
